ipss.plugin.3phase/logs/ipss.plugin.3phase.log
[2026-02-07 14:55:13] INFO  org.ieee.odm.adapter.AbstractODMAdapter - Parse input file and create the parser object, testData/IEEE9Bus/ieee9.raw
[2026-02-07 14:55:13] INFO  org.ieee.odm.adapter.AbstractODMAdapter - Parse input file and create the parser object, testData/IEEE9Bus/ieee9.seq
[2026-02-07 14:55:13] INFO  org.ieee.odm.adapter.AbstractODMAdapter - Parse input file and create the parser object, testData/IEEE9Bus/ieee9_dyn_onlyGen.dyr
[2026-02-07 14:55:13] INFO  org.ieee.odm.adapter.psse.raw.impl.PSSEAcscRawAdapter - PSS/E Positive sequence Generator data record processed
[2026-02-07 14:55:13] INFO  org.ieee.odm.adapter.psse.raw.impl.PSSEAcscRawAdapter - PSS/E Negative sequence Generator data record processed
[2026-02-07 14:55:13] INFO  org.ieee.odm.adapter.psse.raw.impl.PSSEAcscRawAdapter - PSS/E Zero sequence Generator data record processed
[2026-02-07 14:55:13] INFO  org.ieee.odm.adapter.psse.raw.impl.PSSEAcscRawAdapter - PSS/E Negative sequence shunt load data record processed
[2026-02-07 14:55:13] INFO  org.ieee.odm.adapter.psse.raw.impl.PSSEAcscRawAdapter - PSS/E Zero sequence shunt load data record processed
[2026-02-07 14:55:13] INFO  org.ieee.odm.adapter.psse.raw.impl.PSSEAcscRawAdapter - PSS/E Zero sequence non-transformer data record processed
[2026-02-07 14:55:13] INFO  org.ieee.odm.adapter.psse.raw.impl.PSSEAcscRawAdapter - PSS/E Zero sequence multual impedance data record processed
[2026-02-07 14:55:13] INFO  org.ieee.odm.adapter.psse.raw.impl.PSSEAcscRawAdapter - PSS/E Zero sequence transformer data record processed
[2026-02-07 14:55:13] INFO  org.ieee.odm.adapter.psse.raw.impl.PSSEAcscRawAdapter - PSS/E Zero sequence switch shunt data record processed
[2026-02-07 14:55:13] INFO  com.interpss.core.algo.impl.LoadflowAlgorithmImpl - AclfNetwork coordinate: Polar
[2026-02-07 14:55:13] INFO  com.interpss.core.aclf.impl.BaseAclfNetworkImpl - AclfNetworkImpl.checkData() called
[2026-02-07 14:55:13] INFO  com.interpss.core.algo.impl.LfCalculatorImpl - Aclf Itr: 0   dPmax :  0.01385 at Bus : Bus4,     dQmax :  0.02108 at Bus : Bus4
[2026-02-07 14:55:13] INFO  com.interpss.core.algo.impl.LfCalculatorImpl - Aclf Itr: 1   dPmax :  0.00001 at Bus : Bus4,     dQmax :  0.00002 at Bus : Bus4
[2026-02-07 14:55:13] INFO  com.interpss.core.aclf.impl.BaseAclfNetworkImpl - Has no limit backoff adjusments in the network 
[2026-02-07 14:55:13] INFO  com.interpss.core.aclf.impl.BaseAclfNetworkImpl - Has no voltage adjusments in the network 
[2026-02-07 14:55:13] INFO  com.interpss.core.aclf.impl.BaseAclfNetworkImpl - Has no power adjusments in the network 
[2026-02-07 14:55:13] INFO  com.interpss.core.algo.impl.NetAdjustAlgorithmImpl - Has no area power adjusments in the network 
[2026-02-07 14:55:13] INFO  com.interpss.core.algo.impl.LfCalculatorImpl - Load Flow Converged !
[2026-02-07 14:55:13] INFO  com.interpss.core.acsc.impl.BaseAcscNetworkImpl - YMatrix formed, sequence: Positive
[2026-02-07 14:55:13] INFO  com.interpss.core.acsc.impl.BaseAcscNetworkImpl - YMatrix formed, sequence: Positive
[2026-02-07 14:55:13] INFO  org.ieee.odm.adapter.AbstractODMAdapter - Parse input file and create the parser object, testData/IEEE9Bus/ieee9.raw
[2026-02-07 14:55:13] INFO  org.ieee.odm.adapter.AbstractODMAdapter - Parse input file and create the parser object, testData/IEEE9Bus/ieee9.seq
[2026-02-07 14:55:13] INFO  org.ieee.odm.adapter.AbstractODMAdapter - Parse input file and create the parser object, testData/IEEE9Bus/ieee9_dyn_onlyGen.dyr
[2026-02-07 14:55:13] INFO  org.ieee.odm.adapter.psse.raw.impl.PSSEAcscRawAdapter - PSS/E Positive sequence Generator data record processed
[2026-02-07 14:55:13] INFO  org.ieee.odm.adapter.psse.raw.impl.PSSEAcscRawAdapter - PSS/E Negative sequence Generator data record processed
[2026-02-07 14:55:13] INFO  org.ieee.odm.adapter.psse.raw.impl.PSSEAcscRawAdapter - PSS/E Zero sequence Generator data record processed
[2026-02-07 14:55:13] INFO  org.ieee.odm.adapter.psse.raw.impl.PSSEAcscRawAdapter - PSS/E Negative sequence shunt load data record processed
[2026-02-07 14:55:13] INFO  org.ieee.odm.adapter.psse.raw.impl.PSSEAcscRawAdapter - PSS/E Zero sequence shunt load data record processed
[2026-02-07 14:55:13] INFO  org.ieee.odm.adapter.psse.raw.impl.PSSEAcscRawAdapter - PSS/E Zero sequence non-transformer data record processed
[2026-02-07 14:55:13] INFO  org.ieee.odm.adapter.psse.raw.impl.PSSEAcscRawAdapter - PSS/E Zero sequence multual impedance data record processed
[2026-02-07 14:55:13] INFO  org.ieee.odm.adapter.psse.raw.impl.PSSEAcscRawAdapter - PSS/E Zero sequence transformer data record processed
[2026-02-07 14:55:13] INFO  org.ieee.odm.adapter.psse.raw.impl.PSSEAcscRawAdapter - PSS/E Zero sequence switch shunt data record processed
[2026-02-07 14:55:13] INFO  com.interpss.core.algo.impl.LoadflowAlgorithmImpl - AclfNetwork coordinate: Polar
[2026-02-07 14:55:13] INFO  com.interpss.core.aclf.impl.BaseAclfNetworkImpl - AclfNetworkImpl.checkData() called
[2026-02-07 14:55:13] INFO  com.interpss.core.algo.impl.LfCalculatorImpl - Aclf Itr: 0   dPmax :  0.01385 at Bus : Bus4,     dQmax :  0.02108 at Bus : Bus4
[2026-02-07 14:55:13] INFO  com.interpss.core.algo.impl.LfCalculatorImpl - Aclf Itr: 1   dPmax :  0.00001 at Bus : Bus4,     dQmax :  0.00002 at Bus : Bus4
[2026-02-07 14:55:13] INFO  com.interpss.core.aclf.impl.BaseAclfNetworkImpl - Has no limit backoff adjusments in the network 
[2026-02-07 14:55:13] INFO  com.interpss.core.aclf.impl.BaseAclfNetworkImpl - Has no voltage adjusments in the network 
[2026-02-07 14:55:13] INFO  com.interpss.core.aclf.impl.BaseAclfNetworkImpl - Has no power adjusments in the network 
[2026-02-07 14:55:13] INFO  com.interpss.core.algo.impl.NetAdjustAlgorithmImpl - Has no area power adjusments in the network 
[2026-02-07 14:55:13] INFO  com.interpss.core.algo.impl.LfCalculatorImpl - Load Flow Converged !
[2026-02-07 14:55:13] INFO  org.interpss.threePhase.dynamic.impl.DStabNetwork3phaseImpl - Start three-phase DStabNetwork initialization...
[2026-02-07 14:55:13] INFO  org.ieee.odm.adapter.AbstractODMAdapter - Parse input file and create the parser object, testData/IEEE9Bus/ieee9.raw
[2026-02-07 14:55:13] INFO  org.ieee.odm.adapter.AbstractODMAdapter - Parse input file and create the parser object, testData/IEEE9Bus/ieee9.seq
[2026-02-07 14:55:13] INFO  org.ieee.odm.adapter.AbstractODMAdapter - Parse input file and create the parser object, testData/IEEE9Bus/ieee9_dyn_onlyGen.dyr
[2026-02-07 14:55:13] INFO  org.ieee.odm.adapter.psse.raw.impl.PSSEAcscRawAdapter - PSS/E Positive sequence Generator data record processed
[2026-02-07 14:55:13] INFO  org.ieee.odm.adapter.psse.raw.impl.PSSEAcscRawAdapter - PSS/E Negative sequence Generator data record processed
[2026-02-07 14:55:13] INFO  org.ieee.odm.adapter.psse.raw.impl.PSSEAcscRawAdapter - PSS/E Zero sequence Generator data record processed
[2026-02-07 14:55:13] INFO  org.ieee.odm.adapter.psse.raw.impl.PSSEAcscRawAdapter - PSS/E Negative sequence shunt load data record processed
[2026-02-07 14:55:13] INFO  org.ieee.odm.adapter.psse.raw.impl.PSSEAcscRawAdapter - PSS/E Zero sequence shunt load data record processed
[2026-02-07 14:55:13] INFO  org.ieee.odm.adapter.psse.raw.impl.PSSEAcscRawAdapter - PSS/E Zero sequence non-transformer data record processed
[2026-02-07 14:55:13] INFO  org.ieee.odm.adapter.psse.raw.impl.PSSEAcscRawAdapter - PSS/E Zero sequence multual impedance data record processed
[2026-02-07 14:55:13] INFO  org.ieee.odm.adapter.psse.raw.impl.PSSEAcscRawAdapter - PSS/E Zero sequence transformer data record processed
[2026-02-07 14:55:13] INFO  org.ieee.odm.adapter.psse.raw.impl.PSSEAcscRawAdapter - PSS/E Zero sequence switch shunt data record processed
[2026-02-07 14:55:13] INFO  com.interpss.core.algo.impl.LoadflowAlgorithmImpl - AclfNetwork coordinate: Polar
[2026-02-07 14:55:13] INFO  com.interpss.core.aclf.impl.BaseAclfNetworkImpl - AclfNetworkImpl.checkData() called
[2026-02-07 14:55:13] INFO  com.interpss.core.algo.impl.LfCalculatorImpl - Aclf Itr: 0   dPmax :  0.01385 at Bus : Bus4,     dQmax :  0.02108 at Bus : Bus4
[2026-02-07 14:55:13] INFO  com.interpss.core.algo.impl.LfCalculatorImpl - Aclf Itr: 1   dPmax :  0.00001 at Bus : Bus4,     dQmax :  0.00002 at Bus : Bus4
[2026-02-07 14:55:13] INFO  com.interpss.core.algo.impl.LfCalculatorImpl - Aclf Itr: 2   dPmax :  0.0000 at Bus : Bus4,     dQmax :  0.0000 at Bus : Bus4
[2026-02-07 14:55:13] INFO  com.interpss.core.aclf.impl.BaseAclfNetworkImpl - Has no limit backoff adjusments in the network 
[2026-02-07 14:55:13] INFO  com.interpss.core.aclf.impl.BaseAclfNetworkImpl - Has no voltage adjusments in the network 
[2026-02-07 14:55:13] INFO  com.interpss.core.aclf.impl.BaseAclfNetworkImpl - Has no power adjusments in the network 
[2026-02-07 14:55:13] INFO  com.interpss.core.algo.impl.NetAdjustAlgorithmImpl - Has no area power adjusments in the network 
[2026-02-07 14:55:13] INFO  com.interpss.core.algo.impl.LfCalculatorImpl - Load Flow Converged !
[2026-02-07 14:55:13] INFO  com.interpss.core.acsc.impl.BaseAcscNetworkImpl - YMatrix formed, sequence: Positive
[2026-02-07 14:55:13] INFO  org.interpss.threePhase.dynamic.impl.DStabNetwork3phaseImpl - Start three-phase DStabNetwork initialization...
[2026-02-07 14:55:13] ERROR org.interpss.multiNet.algo.MultiNet3Ph3SeqDStabSolverImpl - Error: SubNetwork initialization error:SubNet-2
[2026-02-07 14:55:13] INFO  org.ieee.odm.adapter.AbstractODMAdapter - Parse input file and create the parser object, testData/IEEE9Bus/ieee9.raw
[2026-02-07 14:55:13] INFO  org.ieee.odm.adapter.AbstractODMAdapter - Parse input file and create the parser object, testData/IEEE9Bus/ieee9.seq
[2026-02-07 14:55:13] INFO  org.ieee.odm.adapter.AbstractODMAdapter - Parse input file and create the parser object, testData/IEEE9Bus/ieee9_dyn_onlyGen.dyr
[2026-02-07 14:55:13] INFO  org.ieee.odm.adapter.psse.raw.impl.PSSEAcscRawAdapter - PSS/E Positive sequence Generator data record processed
[2026-02-07 14:55:13] INFO  org.ieee.odm.adapter.psse.raw.impl.PSSEAcscRawAdapter - PSS/E Negative sequence Generator data record processed
[2026-02-07 14:55:13] INFO  org.ieee.odm.adapter.psse.raw.impl.PSSEAcscRawAdapter - PSS/E Zero sequence Generator data record processed
[2026-02-07 14:55:13] INFO  org.ieee.odm.adapter.psse.raw.impl.PSSEAcscRawAdapter - PSS/E Negative sequence shunt load data record processed
[2026-02-07 14:55:13] INFO  org.ieee.odm.adapter.psse.raw.impl.PSSEAcscRawAdapter - PSS/E Zero sequence shunt load data record processed
[2026-02-07 14:55:13] INFO  org.ieee.odm.adapter.psse.raw.impl.PSSEAcscRawAdapter - PSS/E Zero sequence non-transformer data record processed
[2026-02-07 14:55:13] INFO  org.ieee.odm.adapter.psse.raw.impl.PSSEAcscRawAdapter - PSS/E Zero sequence multual impedance data record processed
[2026-02-07 14:55:13] INFO  org.ieee.odm.adapter.psse.raw.impl.PSSEAcscRawAdapter - PSS/E Zero sequence transformer data record processed
[2026-02-07 14:55:13] INFO  org.ieee.odm.adapter.psse.raw.impl.PSSEAcscRawAdapter - PSS/E Zero sequence switch shunt data record processed
[2026-02-07 14:55:13] INFO  com.interpss.core.algo.impl.LoadflowAlgorithmImpl - AclfNetwork coordinate: Polar
[2026-02-07 14:55:13] INFO  com.interpss.core.aclf.impl.BaseAclfNetworkImpl - AclfNetworkImpl.checkData() called
[2026-02-07 14:55:13] INFO  com.interpss.core.algo.impl.LfCalculatorImpl - Aclf Itr: 0   dPmax :  0.01385 at Bus : Bus4,     dQmax :  0.02108 at Bus : Bus4
[2026-02-07 14:55:13] INFO  com.interpss.core.algo.impl.LfCalculatorImpl - Aclf Itr: 1   dPmax :  0.00001 at Bus : Bus4,     dQmax :  0.00002 at Bus : Bus4
[2026-02-07 14:55:13] INFO  com.interpss.core.aclf.impl.BaseAclfNetworkImpl - Has no limit backoff adjusments in the network 
[2026-02-07 14:55:13] INFO  com.interpss.core.aclf.impl.BaseAclfNetworkImpl - Has no voltage adjusments in the network 
[2026-02-07 14:55:13] INFO  com.interpss.core.aclf.impl.BaseAclfNetworkImpl - Has no power adjusments in the network 
[2026-02-07 14:55:13] INFO  com.interpss.core.algo.impl.NetAdjustAlgorithmImpl - Has no area power adjusments in the network 
[2026-02-07 14:55:13] INFO  com.interpss.core.algo.impl.LfCalculatorImpl - Load Flow Converged !
[2026-02-07 14:55:13] INFO  com.interpss.core.acsc.impl.BaseAcscNetworkImpl - YMatrix formed, sequence: Positive
[2026-02-07 14:55:13] INFO  org.interpss.threePhase.dynamic.impl.DStabNetwork3phaseImpl - Start three-phase DStabNetwork initialization...
[2026-02-07 14:55:13] INFO  com.interpss.core.acsc.impl.BaseAcscNetworkImpl - YMatrix formed, sequence: Negative
[2026-02-07 14:55:13] INFO  com.interpss.core.acsc.impl.BaseAcscNetworkImpl - YMatrix LUed, sequence: Negative
[2026-02-07 14:55:13] INFO  com.interpss.core.acsc.impl.BaseAcscNetworkImpl - YMatrix formed, sequence: Zero
[2026-02-07 14:55:13] INFO  com.interpss.core.acsc.impl.BaseAcscNetworkImpl - YMatrix LUed, sequence: Zero
[2026-02-07 14:55:13] INFO  org.ieee.odm.adapter.AbstractODMAdapter - Parse input file and create the parser object, testData/IEEE9Bus/ieee9.raw
[2026-02-07 14:55:13] INFO  org.ieee.odm.adapter.AbstractODMAdapter - Parse input file and create the parser object, testData/IEEE9Bus/ieee9.seq
[2026-02-07 14:55:13] INFO  org.ieee.odm.adapter.AbstractODMAdapter - Parse input file and create the parser object, testData/IEEE9Bus/ieee9_dyn_onlyGen.dyr
[2026-02-07 14:55:13] INFO  org.ieee.odm.adapter.psse.raw.impl.PSSEAcscRawAdapter - PSS/E Positive sequence Generator data record processed
[2026-02-07 14:55:13] INFO  org.ieee.odm.adapter.psse.raw.impl.PSSEAcscRawAdapter - PSS/E Negative sequence Generator data record processed
[2026-02-07 14:55:13] INFO  org.ieee.odm.adapter.psse.raw.impl.PSSEAcscRawAdapter - PSS/E Zero sequence Generator data record processed
[2026-02-07 14:55:13] INFO  org.ieee.odm.adapter.psse.raw.impl.PSSEAcscRawAdapter - PSS/E Negative sequence shunt load data record processed
[2026-02-07 14:55:13] INFO  org.ieee.odm.adapter.psse.raw.impl.PSSEAcscRawAdapter - PSS/E Zero sequence shunt load data record processed
[2026-02-07 14:55:13] INFO  org.ieee.odm.adapter.psse.raw.impl.PSSEAcscRawAdapter - PSS/E Zero sequence non-transformer data record processed
[2026-02-07 14:55:13] INFO  org.ieee.odm.adapter.psse.raw.impl.PSSEAcscRawAdapter - PSS/E Zero sequence multual impedance data record processed
[2026-02-07 14:55:13] INFO  org.ieee.odm.adapter.psse.raw.impl.PSSEAcscRawAdapter - PSS/E Zero sequence transformer data record processed
[2026-02-07 14:55:13] INFO  org.ieee.odm.adapter.psse.raw.impl.PSSEAcscRawAdapter - PSS/E Zero sequence switch shunt data record processed
[2026-02-07 14:55:13] INFO  com.interpss.core.algo.impl.LoadflowAlgorithmImpl - AclfNetwork coordinate: Polar
[2026-02-07 14:55:13] INFO  com.interpss.core.aclf.impl.BaseAclfNetworkImpl - AclfNetworkImpl.checkData() called
[2026-02-07 14:55:13] INFO  com.interpss.core.algo.impl.LfCalculatorImpl - Aclf Itr: 0   dPmax :  0.01385 at Bus : Bus4,     dQmax :  0.02108 at Bus : Bus4
[2026-02-07 14:55:13] INFO  com.interpss.core.algo.impl.LfCalculatorImpl - Aclf Itr: 1   dPmax :  0.00001 at Bus : Bus4,     dQmax :  0.00002 at Bus : Bus4
[2026-02-07 14:55:13] INFO  com.interpss.core.aclf.impl.BaseAclfNetworkImpl - Has no limit backoff adjusments in the network 
[2026-02-07 14:55:13] INFO  com.interpss.core.aclf.impl.BaseAclfNetworkImpl - Has no voltage adjusments in the network 
[2026-02-07 14:55:13] INFO  com.interpss.core.aclf.impl.BaseAclfNetworkImpl - Has no power adjusments in the network 
[2026-02-07 14:55:13] INFO  com.interpss.core.algo.impl.NetAdjustAlgorithmImpl - Has no area power adjusments in the network 
[2026-02-07 14:55:13] INFO  com.interpss.core.algo.impl.LfCalculatorImpl - Load Flow Converged !
[2026-02-07 14:55:13] INFO  org.interpss.threePhase.dynamic.impl.DStabNetwork3phaseImpl - Start three-phase DStabNetwork initialization...
[2026-02-07 14:55:13] INFO  com.interpss.core.acsc.impl.BaseAcscNetworkImpl - YMatrix formed, sequence: Positive
[2026-02-07 14:55:13] INFO  com.interpss.core.acsc.impl.BaseAcscNetworkImpl - YMatrix formed, sequence: Negative
[2026-02-07 14:55:13] INFO  com.interpss.core.acsc.impl.BaseAcscNetworkImpl - YMatrix LUed, sequence: Negative
[2026-02-07 14:55:13] INFO  com.interpss.core.acsc.impl.BaseAcscNetworkImpl - YMatrix formed, sequence: Zero
[2026-02-07 14:55:13] INFO  com.interpss.core.acsc.impl.BaseAcscNetworkImpl - YMatrix LUed, sequence: Zero
[2026-02-07 14:55:13] INFO  org.interpss.multiNet.algo.MultiNet3Ph3SeqDStabSolverImpl - 0.0: multi subNetwork solution in the nextStep() is converged, iteration #2
[2026-02-07 14:55:13] INFO  org.interpss.multiNet.algo.MultiNet3Ph3SeqDStabSolverImpl - 0.0: multi subNetwork solution in the nextStep() is converged, iteration #2
[2026-02-07 14:55:13] INFO  org.interpss.multiNet.algo.MultiNet3Ph3SeqDStabSolverImpl - 0.005: multi subNetwork solution in the nextStep() is converged, iteration #2
[2026-02-07 14:55:13] INFO  org.interpss.multiNet.algo.MultiNet3Ph3SeqDStabSolverImpl - 0.005: multi subNetwork solution in the nextStep() is converged, iteration #2
[2026-02-07 14:55:13] INFO  org.interpss.multiNet.algo.MultiNet3Ph3SeqDStabSolverImpl - 0.01: multi subNetwork solution in the nextStep() is converged, iteration #2
[2026-02-07 14:55:13] INFO  org.interpss.multiNet.algo.MultiNet3Ph3SeqDStabSolverImpl - 0.01: multi subNetwork solution in the nextStep() is converged, iteration #2
[2026-02-07 14:55:13] INFO  org.interpss.multiNet.algo.MultiNet3Ph3SeqDStabSolverImpl - 0.015: multi subNetwork solution in the nextStep() is converged, iteration #2
[2026-02-07 14:55:13] INFO  org.interpss.multiNet.algo.MultiNet3Ph3SeqDStabSolverImpl - 0.015: multi subNetwork solution in the nextStep() is converged, iteration #2
[2026-02-07 14:55:13] INFO  org.interpss.multiNet.algo.MultiNet3Ph3SeqDStabSolverImpl - 0.02: multi subNetwork solution in the nextStep() is converged, iteration #2
[2026-02-07 14:55:13] INFO  org.interpss.multiNet.algo.MultiNet3Ph3SeqDStabSolverImpl - 0.02: multi subNetwork solution in the nextStep() is converged, iteration #2
[2026-02-07 14:55:13] INFO  org.interpss.multiNet.algo.MultiNet3Ph3SeqDStabSolverImpl - 0.025: multi subNetwork solution in the nextStep() is converged, iteration #2
[2026-02-07 14:55:13] INFO  org.interpss.multiNet.algo.MultiNet3Ph3SeqDStabSolverImpl - 0.025: multi subNetwork solution in the nextStep() is converged, iteration #2
[2026-02-07 14:55:13] INFO  org.interpss.multiNet.algo.MultiNet3Ph3SeqDStabSolverImpl - 0.030000000000000002: multi subNetwork solution in the nextStep() is converged, iteration #2
[2026-02-07 14:55:13] INFO  org.interpss.multiNet.algo.MultiNet3Ph3SeqDStabSolverImpl - 0.030000000000000002: multi subNetwork solution in the nextStep() is converged, iteration #2
[2026-02-07 14:55:13] INFO  org.interpss.multiNet.algo.MultiNet3Ph3SeqDStabSolverImpl - 0.035: multi subNetwork solution in the nextStep() is converged, iteration #2
[2026-02-07 14:55:13] INFO  org.interpss.multiNet.algo.MultiNet3Ph3SeqDStabSolverImpl - 0.035: multi subNetwork solution in the nextStep() is converged, iteration #2
[2026-02-07 14:55:13] INFO  org.interpss.multiNet.algo.MultiNet3Ph3SeqDStabSolverImpl - 0.04: multi subNetwork solution in the nextStep() is converged, iteration #2
[2026-02-07 14:55:13] INFO  org.interpss.multiNet.algo.MultiNet3Ph3SeqDStabSolverImpl - 0.04: multi subNetwork solution in the nextStep() is converged, iteration #2
[2026-02-07 14:55:13] INFO  org.interpss.multiNet.algo.MultiNet3Ph3SeqDStabSolverImpl - 0.045: multi subNetwork solution in the nextStep() is converged, iteration #2
[2026-02-07 14:55:13] INFO  org.interpss.multiNet.algo.MultiNet3Ph3SeqDStabSolverImpl - 0.045: multi subNetwork solution in the nextStep() is converged, iteration #2
[2026-02-07 14:55:13] INFO  org.interpss.multiNet.algo.MultiNet3Ph3SeqDStabSolverImpl - 0.049999999999999996: multi subNetwork solution in the nextStep() is converged, iteration #2
[2026-02-07 14:55:13] INFO  org.interpss.multiNet.algo.MultiNet3Ph3SeqDStabSolverImpl - 0.049999999999999996: multi subNetwork solution in the nextStep() is converged, iteration #2
[2026-02-07 14:55:13] INFO  org.interpss.multiNet.algo.MultiNet3Ph3SeqDStabSolverImpl - 0.05499999999999999: multi subNetwork solution in the nextStep() is converged, iteration #2
[2026-02-07 14:55:13] INFO  org.interpss.multiNet.algo.MultiNet3Ph3SeqDStabSolverImpl - 0.05499999999999999: multi subNetwork solution in the nextStep() is converged, iteration #2
[2026-02-07 14:55:13] INFO  org.interpss.multiNet.algo.MultiNet3Ph3SeqDStabSolverImpl - 0.05999999999999999: multi subNetwork solution in the nextStep() is converged, iteration #2
[2026-02-07 14:55:13] INFO  org.interpss.multiNet.algo.MultiNet3Ph3SeqDStabSolverImpl - 0.05999999999999999: multi subNetwork solution in the nextStep() is converged, iteration #2
[2026-02-07 14:55:13] INFO  org.interpss.multiNet.algo.MultiNet3Ph3SeqDStabSolverImpl - 0.06499999999999999: multi subNetwork solution in the nextStep() is converged, iteration #2
[2026-02-07 14:55:13] INFO  org.interpss.multiNet.algo.MultiNet3Ph3SeqDStabSolverImpl - 0.06499999999999999: multi subNetwork solution in the nextStep() is converged, iteration #2
[2026-02-07 14:55:13] INFO  org.interpss.multiNet.algo.MultiNet3Ph3SeqDStabSolverImpl - 0.06999999999999999: multi subNetwork solution in the nextStep() is converged, iteration #2
[2026-02-07 14:55:13] INFO  org.interpss.multiNet.algo.MultiNet3Ph3SeqDStabSolverImpl - 0.06999999999999999: multi subNetwork solution in the nextStep() is converged, iteration #2
[2026-02-07 14:55:13] INFO  org.interpss.multiNet.algo.MultiNet3Ph3SeqDStabSolverImpl - 0.075: multi subNetwork solution in the nextStep() is converged, iteration #2
[2026-02-07 14:55:13] INFO  org.interpss.multiNet.algo.MultiNet3Ph3SeqDStabSolverImpl - 0.075: multi subNetwork solution in the nextStep() is converged, iteration #2
[2026-02-07 14:55:13] INFO  org.interpss.multiNet.algo.MultiNet3Ph3SeqDStabSolverImpl - 0.08: multi subNetwork solution in the nextStep() is converged, iteration #2
[2026-02-07 14:55:13] INFO  org.interpss.multiNet.algo.MultiNet3Ph3SeqDStabSolverImpl - 0.08: multi subNetwork solution in the nextStep() is converged, iteration #2
[2026-02-07 14:55:13] INFO  org.interpss.multiNet.algo.MultiNet3Ph3SeqDStabSolverImpl - 0.085: multi subNetwork solution in the nextStep() is converged, iteration #2
[2026-02-07 14:55:13] INFO  org.interpss.multiNet.algo.MultiNet3Ph3SeqDStabSolverImpl - 0.085: multi subNetwork solution in the nextStep() is converged, iteration #2
[2026-02-07 14:55:13] INFO  org.interpss.multiNet.algo.MultiNet3Ph3SeqDStabSolverImpl - 0.09000000000000001: multi subNetwork solution in the nextStep() is converged, iteration #2
[2026-02-07 14:55:13] INFO  org.interpss.multiNet.algo.MultiNet3Ph3SeqDStabSolverImpl - 0.09000000000000001: multi subNetwork solution in the nextStep() is converged, iteration #2
[2026-02-07 14:55:13] INFO  com.interpss.dstab.algo.defaultImpl.AbstractDStabSolver - DStab simulation completed (%) :10
[2026-02-07 14:55:13] INFO  org.interpss.multiNet.algo.MultiNet3Ph3SeqDStabSolverImpl - 0.09500000000000001: multi subNetwork solution in the nextStep() is converged, iteration #2
[2026-02-07 14:55:13] INFO  org.interpss.multiNet.algo.MultiNet3Ph3SeqDStabSolverImpl - 0.09500000000000001: multi subNetwork solution in the nextStep() is converged, iteration #2
[2026-02-07 14:55:13] INFO  org.interpss.multiNet.algo.MultiNet3Ph3SeqDStabSolverImpl - 0.10000000000000002: multi subNetwork solution in the nextStep() is converged, iteration #2
[2026-02-07 14:55:13] INFO  org.interpss.multiNet.algo.MultiNet3Ph3SeqDStabSolverImpl - 0.10000000000000002: multi subNetwork solution in the nextStep() is converged, iteration #2
[2026-02-07 14:55:13] INFO  org.interpss.multiNet.algo.MultiNet3Ph3SeqDStabSolverImpl - 0.10500000000000002: multi subNetwork solution in the nextStep() is converged, iteration #2
[2026-02-07 14:55:13] INFO  org.interpss.multiNet.algo.MultiNet3Ph3SeqDStabSolverImpl - 0.10500000000000002: multi subNetwork solution in the nextStep() is converged, iteration #2
[2026-02-07 14:55:13] INFO  org.interpss.multiNet.algo.MultiNet3Ph3SeqDStabSolverImpl - 0.11000000000000003: multi subNetwork solution in the nextStep() is converged, iteration #2
[2026-02-07 14:55:13] INFO  org.interpss.multiNet.algo.MultiNet3Ph3SeqDStabSolverImpl - 0.11000000000000003: multi subNetwork solution in the nextStep() is converged, iteration #2
[2026-02-07 14:55:13] INFO  org.interpss.multiNet.algo.MultiNet3Ph3SeqDStabSolverImpl - 0.11500000000000003: multi subNetwork solution in the nextStep() is converged, iteration #2
[2026-02-07 14:55:13] INFO  org.interpss.multiNet.algo.MultiNet3Ph3SeqDStabSolverImpl - 0.11500000000000003: multi subNetwork solution in the nextStep() is converged, iteration #2
[2026-02-07 14:55:13] INFO  org.interpss.multiNet.algo.MultiNet3Ph3SeqDStabSolverImpl - 0.12000000000000004: multi subNetwork solution in the nextStep() is converged, iteration #2
[2026-02-07 14:55:13] INFO  org.interpss.multiNet.algo.MultiNet3Ph3SeqDStabSolverImpl - 0.12000000000000004: multi subNetwork solution in the nextStep() is converged, iteration #2
[2026-02-07 14:55:13] INFO  org.interpss.multiNet.algo.MultiNet3Ph3SeqDStabSolverImpl - 0.12500000000000003: multi subNetwork solution in the nextStep() is converged, iteration #2
[2026-02-07 14:55:13] INFO  org.interpss.multiNet.algo.MultiNet3Ph3SeqDStabSolverImpl - 0.12500000000000003: multi subNetwork solution in the nextStep() is converged, iteration #2
[2026-02-07 14:55:13] INFO  org.interpss.multiNet.algo.MultiNet3Ph3SeqDStabSolverImpl - 0.13000000000000003: multi subNetwork solution in the nextStep() is converged, iteration #2
[2026-02-07 14:55:13] INFO  org.interpss.multiNet.algo.MultiNet3Ph3SeqDStabSolverImpl - 0.13000000000000003: multi subNetwork solution in the nextStep() is converged, iteration #2
[2026-02-07 14:55:13] INFO  org.interpss.multiNet.algo.MultiNet3Ph3SeqDStabSolverImpl - 0.13500000000000004: multi subNetwork solution in the nextStep() is converged, iteration #2
[2026-02-07 14:55:13] INFO  org.interpss.multiNet.algo.MultiNet3Ph3SeqDStabSolverImpl - 0.13500000000000004: multi subNetwork solution in the nextStep() is converged, iteration #2
[2026-02-07 14:55:13] INFO  org.interpss.multiNet.algo.MultiNet3Ph3SeqDStabSolverImpl - 0.14000000000000004: multi subNetwork solution in the nextStep() is converged, iteration #2
[2026-02-07 14:55:13] INFO  org.interpss.multiNet.algo.MultiNet3Ph3SeqDStabSolverImpl - 0.14000000000000004: multi subNetwork solution in the nextStep() is converged, iteration #2
[2026-02-07 14:55:13] INFO  org.interpss.multiNet.algo.MultiNet3Ph3SeqDStabSolverImpl - 0.14500000000000005: multi subNetwork solution in the nextStep() is converged, iteration #2
[2026-02-07 14:55:13] INFO  org.interpss.multiNet.algo.MultiNet3Ph3SeqDStabSolverImpl - 0.14500000000000005: multi subNetwork solution in the nextStep() is converged, iteration #2
[2026-02-07 14:55:13] INFO  org.interpss.multiNet.algo.MultiNet3Ph3SeqDStabSolverImpl - 0.15000000000000005: multi subNetwork solution in the nextStep() is converged, iteration #2
[2026-02-07 14:55:13] INFO  org.interpss.multiNet.algo.MultiNet3Ph3SeqDStabSolverImpl - 0.15000000000000005: multi subNetwork solution in the nextStep() is converged, iteration #2
[2026-02-07 14:55:13] INFO  org.interpss.multiNet.algo.MultiNet3Ph3SeqDStabSolverImpl - 0.15500000000000005: multi subNetwork solution in the nextStep() is converged, iteration #2
[2026-02-07 14:55:13] INFO  org.interpss.multiNet.algo.MultiNet3Ph3SeqDStabSolverImpl - 0.15500000000000005: multi subNetwork solution in the nextStep() is converged, iteration #2
[2026-02-07 14:55:13] INFO  org.interpss.multiNet.algo.MultiNet3Ph3SeqDStabSolverImpl - 0.16000000000000006: multi subNetwork solution in the nextStep() is converged, iteration #2
[2026-02-07 14:55:13] INFO  org.interpss.multiNet.algo.MultiNet3Ph3SeqDStabSolverImpl - 0.16000000000000006: multi subNetwork solution in the nextStep() is converged, iteration #2
[2026-02-07 14:55:13] INFO  org.interpss.multiNet.algo.MultiNet3Ph3SeqDStabSolverImpl - 0.16500000000000006: multi subNetwork solution in the nextStep() is converged, iteration #2
[2026-02-07 14:55:13] INFO  org.interpss.multiNet.algo.MultiNet3Ph3SeqDStabSolverImpl - 0.16500000000000006: multi subNetwork solution in the nextStep() is converged, iteration #2
[2026-02-07 14:55:13] INFO  org.interpss.multiNet.algo.MultiNet3Ph3SeqDStabSolverImpl - 0.17000000000000007: multi subNetwork solution in the nextStep() is converged, iteration #2
[2026-02-07 14:55:13] INFO  org.interpss.multiNet.algo.MultiNet3Ph3SeqDStabSolverImpl - 0.17000000000000007: multi subNetwork solution in the nextStep() is converged, iteration #2
[2026-02-07 14:55:13] INFO  org.interpss.multiNet.algo.MultiNet3Ph3SeqDStabSolverImpl - 0.17500000000000007: multi subNetwork solution in the nextStep() is converged, iteration #2
[2026-02-07 14:55:13] INFO  org.interpss.multiNet.algo.MultiNet3Ph3SeqDStabSolverImpl - 0.17500000000000007: multi subNetwork solution in the nextStep() is converged, iteration #2
[2026-02-07 14:55:13] INFO  org.interpss.multiNet.algo.MultiNet3Ph3SeqDStabSolverImpl - 0.18000000000000008: multi subNetwork solution in the nextStep() is converged, iteration #2
[2026-02-07 14:55:13] INFO  org.interpss.multiNet.algo.MultiNet3Ph3SeqDStabSolverImpl - 0.18000000000000008: multi subNetwork solution in the nextStep() is converged, iteration #2
[2026-02-07 14:55:13] INFO  org.interpss.multiNet.algo.MultiNet3Ph3SeqDStabSolverImpl - 0.18500000000000008: multi subNetwork solution in the nextStep() is converged, iteration #2
...
